test/UCTE10_20090319_imported.m
function mpc = UCTE10_20090319_imported

%% MATPOWER Case Format : Version 2
mpc.version = '2';

%%-----  Power Flow Data  -----%%
%% system MVA base
mpc.baseMVA = 100;

%% bus data
%	bus_i	type	Pd	Qd	Gs	Bs	area	Vm	Va	baseKV	zone	Vmax	Vmin
mpc.bus = [
	1	1	300	290	0	100	3	0.9149	-4.5958	400	2	1.1	0.9;
	2	2	0	0	0	0	3	1.00093	6.5541	15.75	2	1.1	0.9;
	3	2	0	0	0	0	1	1.05254	16.5449	21	3	1.1	0.9;
	4	1	0	0	0	0	1	0.92467	-10.4498	220	3	1.1	0.9;
	5	1	0	0	0	50.08	1	0.93295	-3.2926	400	3	1.05	0.95;
	6	2	100	90	0	0	1	1	-7.1381	110	3	1.1	0.9;
	7	3	483	232	0	0	3	1	0	220	2	1.1	0.9;
	8	1	200	50	0	0	1	0.92467	-10.4498	220	3	1.1	0.9;
	9	1	0	0	0	0	2	0.92843	-3.7528	400	1	1.1	0.9;
	10	1	0	0	0	0	2	0.98309	-1.9706	220	1	1.1	0.9;
	11	1	0	0	0	0	2	0.91739	-4.4829	400	1	1.1	0.9;
];

%% generator data
%	bus	Pg	Qg	Qmax	Qmin	Vg	mBase	status	Pmax	Pmin	Pc1	Pc2	Qc1min	Qc1max	Qc2min	Qc2max	ramp_agc	ramp_10	ramp_30	ramp_q	apf
mpc.gen = [
	7	10	-0	0	0	1	0	1	10	10	0	0	0	0	0	0	0	0	0	0	0;
	7	656.369	199.301	600	0	1	0	1	1000	300	0	0	0	0	0	0	0	0	0	0	0;
	3	118.17	60	60	-200	1.05254	0	1	200	50	0	0	0	0	0	0	0	0	0	0	0;
	6	90	95.415	160	50	1	0	1	200	50	0	0	0	0	0	0	0	0	0	0	0;
	2	220	200	200	30	1.00093	0	1	250	130	0	0	0	0	0	0	0	0	0	0	0;
];

%% branch data
%	fbus	tbus	r	x	b	rateA	rateB	rateC	ratio	angle	status	angmin	angmax	Pf	Qf	Pt	Qt
mpc.branch = [
	1	11	0.00029	0.00253	0.08298992	0	0	0	0	0	1	-360	360	0.0000	0.0000	0.0000	0.0000;
	7	10	0.00215	0.01339	0.0203299844	0	0	0	0	0	1	-360	360	0.0000	0.0000	0.0000	0.0000;
	1	9	0.0013	0.015	0.5024	0	0	0	0	0	1	-360	360	0.0000	0.0000	0.0000	0.0000;
	5	9	0.00054	0.00801	0.208	0	0	0	0	0	1	-360	360	0.0000	0.0000	0.0000	0.0000;
	8	10	0.00881	0.05335	0.0892999844	0	0	0	0	0	1	-360	360	0.0000	0.0000	0.0000	0.0000;
	5	11	0.00169	0.02496	0.64	0	0	0	0	0	1	-360	360	0.0000	0.0000	0.0000	0.0000;
	2	7	0.00086	0.04799	0.0101099856	250	0	0	1	0	1	-360	360	0.0000	0.0000	0.0000	0.0000;
	7	1	0.00087	0.05807	-0.00712	292.768	301.917	311.066	1	0	1	-360	360	0.0000	0.0000	0.0000	0.0000;
	8	6	0.0017	0.07692	-0	650	630	620	1	0	1	-360	360	0.0000	0.0000	0.0000	0.0000;
	5	6	0.0017	0.07692	-0	650	630	620	1	0	1	-360	360	0.0000	0.0000	0.0000	0.0000;
	4	8	0.00068	0.255	0.0012299892	0	0	0	1	0	1	-360	360	0.0000	0.0000	0.0000	0.0000;
	4	3	0.00302	0.63558	-0	0	0	0	1	0	1	-360	360	0.0000	0.0000	0.0000	0.0000;
	4	5	0.00057	-0.17386	-0	0	0	0	1	0	1	-360	360	0.0000	0.0000	0.0000	0.0000;
];
